Circuit: * Z:\home\ill\git\EasyAmp\EasyAmp2.asc

Warning: Multiple definitions of model "fdms3615sq2" Type: Vdmos1
Direct Newton iteration for .op point succeeded.

Date: Tue Mar 18 23:09:23 2014
Total elapsed time: 0.122 seconds.

tnom = 27
temp = 27
method = modified trap
totiter = 2105
traniter = 2096
tranpoints = 1042
accept = 1042
rejected = 0
matrix size = 13
fillins = 0
solver = Normal
Matrix Compiler1: 710 bytes object code size  0.9/0.6/[0.5]
Matrix Compiler2: 981 bytes object code size  0.6/0.6/[0.6]


